AL Central Division;Melbourne Thunder;;PITCHERS - 20;T;'Grade;;Ctrl;
AL Central Division;Melbourne Thunder;;BANKS, Willie;R;'10;;W;
AL Central Division;Melbourne Thunder;;KARL, Scott;L;'6;;;
AL Central Division;Melbourne Thunder;;BURKETT, John;R;'5;;YZ;
AL Central Division;Melbourne Thunder;;OLIVARES, Omar;R;'5;;;
AL Central Division;Melbourne Thunder;;OQUIST, Mike;R;'5;;Y;
AL Central Division;Melbourne Thunder;;SMITH, Pete;R;'5;;;
AL Central Division;Melbourne Thunder;;VALENZUELA, Fernando;L;'3;;W;
AL Central Division;Melbourne Thunder;;BOSKIE, Shawn;R;'2;;Z;
AL Central Division;Melbourne Thunder;;PANIAGUA, Jose;R;'1;;W;
AL Central Division;Melbourne Thunder;;HOFFMAN, Trevor;R;'16;*;XYZ;
AL Central Division;Melbourne Thunder;;MATHEWS, T. J.;R;'14;*;X;
AL Central Division;Melbourne Thunder;;WOHLERS, Mark;R;'14;*;XYW;
AL Central Division;Melbourne Thunder;;HOLTZ, Mike;L;'13;*;XZ;
AL Central Division;Melbourne Thunder;;LLOYD, Graeme;L;'13;*;Z;
AL Central Division;Melbourne Thunder;;CLONTZ, Brad;R;'10;*;Y;
AL Central Division;Melbourne Thunder;;CADARET, Greg;L;'9;*;Y;
AL Central Division;Melbourne Thunder;;WAGNER, Paul;R;'4;*;W;
AL Central Division;Melbourne Thunder;;MINOR, Blas;R;'3;*;;
AL Central Division;Melbourne Thunder;;NAULTY, Dan;R;'2;*;Y;
AL Central Division;Melbourne Thunder;;RUEBEL, Matt;L;'2;*;Y;
AL Central Division;Mill Creek Mafia;;PITCHERS - 13;T;'Grade;;Ctrl;
AL Central Division;Mill Creek Mafia;;SCHILLING, Curt;R;'14;;XYZ;
AL Central Division;Mill Creek Mafia;;BENES, Andy;R;'12;;X;
AL Central Division;Mill Creek Mafia;;RUETER, Kirk;L;'11;;Z;
AL Central Division;Mill Creek Mafia;;BURBA, Dave;R;'5;;Y;
AL Central Division;Mill Creek Mafia;;HELLING, Rick;R;'5/6;*;YW;
AL Central Division;Mill Creek Mafia;;HITCHCOCK, Sterling;L;'4;;;
AL Central Division;Mill Creek Mafia;;BATISTA, Miguel;R;'2;;W;
AL Central Division;Mill Creek Mafia;;TELEMACO, Amaury;R;'1;;YZ;
AL Central Division;Mill Creek Mafia;;OROSCO, Jesse;L;'19;*;XW;
AL Central Division;Mill Creek Mafia;;AYALA, Bobby;R;'11;*;X;
AL Central Division;Mill Creek Mafia;;ADAMS, Terry;R;'5;*;Y;
AL Central Division;Mill Creek Mafia;;OLSON, Gregg;R;'4;*;YW;
AL Central Division;Mill Creek Mafia;;CHARLTON, Norm;L;'1;*;YW;
AL Central Division;Portland Peaks;;PITCHERS - 18;T;'Grade;;Ctrl;
AL Central Division;Portland Peaks;;MUSSINA, Mike;R;'14;;XZ;
AL Central Division;Portland Peaks;;VALDES, Marc;R;'10/13;*;;
AL Central Division;Portland Peaks;;ROSADO, Jose;L;'5;;;
AL Central Division;Portland Peaks;;SMILEY, John;L;'4;;YZ;
AL Central Division;Portland Peaks;;WADE, Terrell;L;'3;;Y;
AL Central Division;Portland Peaks;;AVERY, Steve;L;'2;;W;
AL Central Division;Portland Peaks;;LIRA, Felipe;R;'2;;;
AL Central Division;Portland Peaks;;HANSON, Erik;R;'1;;XY;
AL Central Division;Portland Peaks;;ISRINGHAUSEN, Jason;R;'1;;YW;
AL Central Division;Portland Peaks;;ASSENMACHER, Paul;L;'14;*;XZ;
AL Central Division;Portland Peaks;;FETTERS, Mike;R;'13;*;X;
AL Central Division;Portland Peaks;;RODRIGUEZ, Rich;L;'12;*;Z;
AL Central Division;Portland Peaks;;BOCHTLER, Doug;R;'5;*;YW;
AL Central Division;Portland Peaks;;HERNANDEZ, Xavier;R;'5;*;Y;
AL Central Division;Portland Peaks;;BRANDENBURG, Mark;R;'3;*;YZ;
AL Central Division;Portland Peaks;;BAUTISTA, Jose;R;'1;*;Z;
AL Central Division;Portland Peaks;;DAVIS, Tim;L;'1;*;XYW;
AL Central Division;Portland Peaks;;MADDUX, Mike;R;'1;*;W;
AL Central Division;Rodgers Dodgers;;PITCHERS - 13;T;'Grade;;Ctrl;
AL Central Division;Rodgers Dodgers;;KILE, Darryl;R;'16;;Y;
AL Central Division;Rodgers Dodgers;;NEAGLE, Denny;L;'15;;YZ;
AL Central Division;Rodgers Dodgers;;GLAVINE, Tom;L;'14;;;
AL Central Division;Rodgers Dodgers;;BENES, Alan;R;'13;;X;
AL Central Division;Rodgers Dodgers;;ERICKSON, Scott;R;'13;;Z;
AL Central Division;Rodgers Dodgers;;MERCEDES, Jose;R;'10;;;
AL Central Division;Rodgers Dodgers;;GOODEN, Dwight;R;'5;;W;
AL Central Division;Rodgers Dodgers;;MYERS, Randy;L;'24;*;X;
AL Central Division;Rodgers Dodgers;;FRASCATORE, John;R;'16;*;Y;
AL Central Division;Rodgers Dodgers;;WICKMAN, Bob;R;'16;*;Y;
AL Central Division;Rodgers Dodgers;;DREIFORT, Darren;R;'15;*;XW;
AL Central Division;Rodgers Dodgers;;EMBREE, Alan;L;'15;*;Z;
AL Central Division;Rodgers Dodgers;;CHRISTIANSEN, Jason;L;'14;*;X;
AL East Division;Centralia Centaurs;;PITCHERS - 12;T;'Grade;;Ctrl;
AL East Division;Centralia Centaurs;;BELCHER, Tim;R;'6;;Z;
AL East Division;Centralia Centaurs;;TEWKSBURY, Bob;R;'6;;Z;
AL East Division;Centralia Centaurs;;FLORIE, Bryce;R;'5/7;*;YW;
AL East Division;Centralia Centaurs;;PAVLIK, Roger;R;'5;;W;
AL East Division;Centralia Centaurs;;WASDIN, John;R;'5/6;*;YZ;
AL East Division;Centralia Centaurs;;MORGAN, Mike;R;'4;;Z;
AL East Division;Centralia Centaurs;;RIVERA, Mariano;R;'21;*;XZ;
AL East Division;Centralia Centaurs;;ECKERSLEY, Dennis;R;'10;*;YZ;
AL East Division;Centralia Centaurs;;DIPOTO, Jerry;R;'5;*;YZ;
AL East Division;Centralia Centaurs;;MILLS, Alan;R;'5;*;YW;
AL East Division;Centralia Centaurs;;BAILEY, Cory;R;'1;*;;
AL East Division;Centralia Centaurs;;LEWIS, Richie;R;'1;*;W;
AL East Division;Flushing Metropolitans;;PITCHERS - 15;T;'Grade;;Ctrl;
AL East Division;Flushing Metropolitans;;CONE, David;R;'15;;XY;
AL East Division;Flushing Metropolitans;;FASSERO, Jeff;L;'13;;Y;
AL East Division;Flushing Metropolitans;;HILL, Ken;R;'7;;W;
AL East Division;Flushing Metropolitans;;ASHBY, Andy;R;'6;;YZ;
AL East Division;Flushing Metropolitans;;ACEVEDO, Juan;R;'5/9;*;;
AL East Division;Flushing Metropolitans;;GUZMAN, Juan;R;'5;;YW;
AL East Division;Flushing Metropolitans;;REYNOLDS, Shane;R;'5;;YZ;
AL East Division;Flushing Metropolitans;;FRANCO, John;L;'16;*;X;
AL East Division;Flushing Metropolitans;;SHAW, Jeff;R;'16;*;YZ;
AL East Division;Flushing Metropolitans;;KARCHNER, Matt;R;'15;*;;
AL East Division;Flushing Metropolitans;;RADINSKY, Scott;L;'14;*;YZ;
AL East Division;Flushing Metropolitans;;CORSI, Jim;R;'13;*;YZ;
AL East Division;Flushing Metropolitans;;WENDELL, Turk;R;'6;*;YW;
AL East Division;Flushing Metropolitans;;GUTHRIE, Mark;L;'3;*;;
AL East Division;Flushing Metropolitans;;RYAN, Ken;R;'1;*;W;
AL East Division;Germantown Toros;;PITCHERS - 12;T;'Grade;;Ctrl;
AL East Division;Germantown Toros;;CANDIOTTI, Tom;R;'9/11;*;Z;
AL East Division;Germantown Toros;;GARDNER, Mark;R;'6;;YZ;
AL East Division;Germantown Toros;;VanLANDINGHAM, William;R;'4;;W;
AL East Division;Germantown Toros;;BEECH, Matt;L;'3;;Y;
AL East Division;Germantown Toros;;McDOWELL, Jack;R;'3;;X;
AL East Division;Germantown Toros;;SCHOUREK, Pete;L;'3;;;
AL East Division;Germantown Toros;;WELLS, Bob;R;'3;;YZ;
AL East Division;Germantown Toros;;MARTINEZ, Dennis;R;'1;;W;
AL East Division;Germantown Toros;;MILLER, Travis;L;'1;;;
AL East Division;Germantown Toros;;POWELL, Jay;R;'12;*;Y;
AL East Division;Germantown Toros;;PICHARDO, Hipolito;R;'8;*;Y;
AL East Division;Germantown Toros;;PEREZ, Yorkis;L;'1;*;;
AL East Division;Texas Tankers;;PITCHERS - 16;T;'Grade;;Ctrl;
AL East Division;Texas Tankers;;PETTITTE, Andy;L;'16;;YZ;
AL East Division;Texas Tankers;;HERMANSON, Dustin;R;'8;;Y;
AL East Division;Texas Tankers;;HAYNES, Jimmy;R;'6;;YW;
AL East Division;Texas Tankers;;D'AMICO, Jeff;R;'5;;YZ;
AL East Division;Texas Tankers;;MULHOLLAND, Terry;L;'5;;Z;
AL East Division;Texas Tankers;;RODRIGUEZ, Felix;R;'5;;W;
AL East Division;Texas Tankers;;FERNANDEZ, Sid;L;'4;;;
AL East Division;Texas Tankers;;SUPPAN, Jeff;R;'4;;Z;
AL East Division;Texas Tankers;;HAWKINS, LaTroy;R;'3;;;
AL East Division;Texas Tankers;;BULLINGER, Jim;R;'2;;;
AL East Division;Texas Tankers;;CARRARA, Giovanni;R;'1;;;
AL East Division;Texas Tankers;;THOMPSON, Mark;R;'1;;;
AL East Division;Texas Tankers;;WILLIAMS, Brian;R;'10;*;W;
AL East Division;Texas Tankers;;SHUEY, Paul;R;'2;*;XW;
AL East Division;Texas Tankers;;LEVINE, Al;R;'1;*;YW;
AL East Division;Texas Tankers;;POOLE, Jim;L;'1;*;;
AL West Division;Beantown Loafers;;PITCHERS - 13;T;'Grade;;Ctrl;
AL West Division;Beantown Loafers;;STEPHENSON, Garrett;R;'10;;Y;
AL West Division;Beantown Loafers;;SIROTKA, Mike;L;'9;;YZ;
AL West Division;Beantown Loafers;;BERE, Jason;R;'5;;YW;
AL West Division;Beantown Loafers;;FOSTER, Kevin;R;'5;;Y;
AL West Division;Beantown Loafers;;MENDOZA, Ramiro;R;'5/7;*;Z;
AL West Division;Beantown Loafers;;SPRINGER, Dennis;R;'5;;;
AL West Division;Beantown Loafers;;HANEY, Chris;L;'4;;Z;
AL West Division;Beantown Loafers;;KRIVDA, Rick;L;'2;;;
AL West Division;Beantown Loafers;;REKAR, Bryan;R;'2;;W;
AL West Division;Beantown Loafers;;WRIGHT, Jamey;R;'2;;;
AL West Division;Beantown Loafers;;CORMIER, Rheal;L;'1;;W;
AL West Division;Beantown Loafers;;GROSS, Kevin;R;'1;;YW;
AL West Division;Beantown Loafers;;SPRINGER, Russ;R;'5;*;XY;
AL West Division;Milwaukee Lagers;;PITCHERS - 20;T;'Grade;;Ctrl;
AL West Division;Milwaukee Lagers;;VALDEZ, Ismael;R;'14;;YZ;
AL West Division;Milwaukee Lagers;;RADKE, Brad;R;'13;;YZ;
AL West Division;Milwaukee Lagers;;BROCAIL, Doug;R;'10/14;*;Y;
AL West Division;Milwaukee Lagers;;CORDOVA, Francisco;R;'10;;YZ;
AL West Division;Milwaukee Lagers;;OLIVER, Darren;L;'8;;;
AL West Division;Milwaukee Lagers;;SWINDELL, Greg;L;'8/12;*;YZ;
AL West Division;Milwaukee Lagers;;MOEHLER, Brian;R;'6;;;
AL West Division;Milwaukee Lagers;;PRIETO, Ariel;R;'5;;YW;
AL West Division;Milwaukee Lagers;;TRACHSEL, Steve;R;'5;;YZ;
AL West Division;Milwaukee Lagers;;PETERS, Chris;L;'4;;;
AL West Division;Milwaukee Lagers;;DAAL, Omar;L;'1;;YZ;
AL West Division;Milwaukee Lagers;;LOPEZ, Albie;R;'1;;Y;
AL West Division;Milwaukee Lagers;;TAYLOR, Billy;R;'11;*;X;
AL West Division;Milwaukee Lagers;;URBINA, Ugueth;R;'10;*;XY;
AL West Division;Milwaukee Lagers;;JAMES, Mike;R;'8;*;X;
AL West Division;Milwaukee Lagers;;TROMBLEY, Mike;R;'7;*;X;
AL West Division;Milwaukee Lagers;;VOSBERG, Ed;L;'6;*;YZ;
AL West Division;Milwaukee Lagers;;JORDAN, Ricardo;L;'3;*;W;
AL West Division;Milwaukee Lagers;;MANUEL, Barry;R;'2;*;Y;
AL West Division;Milwaukee Lagers;;CRABTREE, Tim;R;'1;*;Z;
AL West Division;Raleigh Rednecks;;PITCHERS - 13;T;'Grade;;Ctrl;
AL West Division;Raleigh Rednecks;;KAMIENIECKI, Scott;R;'9;;;
AL West Division;Raleigh Rednecks;;LOAIZA, Esteban;R;'6;;Z;
AL West Division;Raleigh Rednecks;;WATSON, Allen;L;'6;;Y;
AL West Division;Raleigh Rednecks;;COOKE, Steve;L;'5;;;
AL West Division;Raleigh Rednecks;;RODRIGUEZ, Frank;R;'5;;;
AL West Division;Raleigh Rednecks;;SELE, Aaron;R;'5;;Y;
AL West Division;Raleigh Rednecks;;LEITER, Mark;R;'3;;YZ;
AL West Division;Raleigh Rednecks;;BYRD, Paul;R;'2;;;
AL West Division;Raleigh Rednecks;;WEATHERS, David;R;'1;;W;
AL West Division;Raleigh Rednecks;;AGUILERA, Rick;R;'11;*;XZ;
AL West Division;Raleigh Rednecks;;WILKINS, Marc;R;'10;*;;
AL West Division;Raleigh Rednecks;;BOTTENFIELD, Kent;R;'8;*;Y;
AL West Division;Raleigh Rednecks;;COOK, Dennis;L;'8;*;X;
AL West Division;Tri City Atomics;;PITCHERS - 13;T;'Grade;;Ctrl;
AL West Division;Tri City Atomics;;MADDUX, Greg;R;'17;;YZ;
AL West Division;Tri City Atomics;;ALVAREZ, Wilson;L;'12;;Y;
AL West Division;Tri City Atomics;;GORDON, Tom;R;'11;;X;
AL West Division;Tri City Atomics;;STOTTLEMYRE, Todd;R;'8;;X;
AL West Division;Tri City Atomics;;FINLEY, Chuck;L;'7;;X;
AL West Division;Tri City Atomics;;MESA, Jose;R;'17;*;YZ;
AL West Division;Tri City Atomics;;RHODES, Arthur;L;'14;*;XYZ;
AL West Division;Tri City Atomics;;SPOLJARIC, Paul;L;'12;*;X;
AL West Division;Tri City Atomics;;GUARDADO, Eddie;L;'10;*;XY;
AL West Division;Tri City Atomics;;TAVAREZ, Julian;R;'8;*;;
AL West Division;Tri City Atomics;;WORRELL, Todd;R;'5;*;X;
AL West Division;Tri City Atomics;;GROOM, Buddy;L;'4;*;Y;
AL West Division;Tri City Atomics;;WILLIAMS, Mike;R;'1;*;;
NL Central Division;Issaquah IronPigs;;PITCHERS - 19;T;'Grade;;Ctrl;
NL Central Division;Issaquah IronPigs;;THOMPSON, Justin;L;'14;;YZ;
NL Central Division;Issaquah IronPigs;;MOYER, Jamie;L;'13;;Z;
NL Central Division;Issaquah IronPigs;;PARK, Chan Ho;R;'13;;Y;
NL Central Division;Issaquah IronPigs;;HOLT, Chris;R;'11;;Z;
NL Central Division;Issaquah IronPigs;;JONES, Bobby;R;'11;;;
NL Central Division;Issaquah IronPigs;;MARTINEZ, Ramon;R;'11;;YW;
NL Central Division;Issaquah IronPigs;;CLARK, Mark;R;'9;;Z;
NL Central Division;Issaquah IronPigs;;GRACE, Mike;R;'7;;YZ;
NL Central Division;Issaquah IronPigs;;NAVARRO, Jaime;R;'3;;YZ;
NL Central Division;Issaquah IronPigs;;OSBORNE, Donovan;L;'3;;Z;
NL Central Division;Issaquah IronPigs;;BERGMAN, Sean;R;'2;;Y;
NL Central Division;Issaquah IronPigs;;MAGNANTE, Mike;L;'17;*;XZ;
NL Central Division;Issaquah IronPigs;;JONES, Todd;R;'15;*;XW;
NL Central Division;Issaquah IronPigs;;MAHAY, Ron;L;'14;*;Z;
NL Central Division;Issaquah IronPigs;;PERCIVAL, Troy;R;'13;*;XY;
NL Central Division;Issaquah IronPigs;;BECK, Rod;R;'11;*;YZ;
NL Central Division;Issaquah IronPigs;;NEN, Robb;R;'11;*;X;
NL Central Division;Issaquah IronPigs;;BRANTLEY, Jeff;R;'5;*;XYW;
NL Central Division;Issaquah IronPigs;;CASIAN, Larry;L;'2;*;Z;
NL Central Division;Mississippi Mudhens;;PITCHERS - 11;T;'Grade;;Ctrl;
NL Central Division;Mississippi Mudhens;;MENHART, Paul;R;'4;;Z;
NL Central Division;Mississippi Mudhens;;LANGSTON, Mark;L;'3;;W;
NL Central Division;Mississippi Mudhens;;KEAGLE, Greg;R;'2;;Y;
NL Central Division;Mississippi Mudhens;;RITZ, Kevin;R;'2;;;
NL Central Division;Mississippi Mudhens;;TELGHEDER, Dave;R;'2;;;
NL Central Division;Mississippi Mudhens;;STEVENS, Dave;R;'1;;YW;
NL Central Division;Mississippi Mudhens;;DeLUCIA, Rich;R;'10;*;XW;
NL Central Division;Mississippi Mudhens;;ERICKS, John;R;'10;*;;
NL Central Division;Mississippi Mudhens;;MIRANDA, Angel;L;'7;*;W;
NL Central Division;Mississippi Mudhens;;MICELI, Dan;R;'4;*;X;
NL Central Division;Mississippi Mudhens;;PAINTER, Lance;L;'3;*;Y;
NL Central Division;Redmond Luchadores;;PITCHERS - 13;T;'Grade;;Ctrl;
NL Central Division;Redmond Luchadores;;HENTGEN, Pat;R;'13;;Z;
NL Central Division;Redmond Luchadores;;FERNANDEZ, Alex;R;'12;;Y;
NL Central Division;Redmond Luchadores;;WELLS, David;L;'9;;YZ;
NL Central Division;Redmond Luchadores;;MLICKI, Dave;R;'7;;Y;
NL Central Division;Redmond Luchadores;;ASTACIO, Pedro;R;'6;;YZ;
NL Central Division;Redmond Luchadores;;MOHLER, Mike;L;'3;;;
NL Central Division;Redmond Luchadores;;ROGERS, Kenny;L;'3;;;
NL Central Division;Redmond Luchadores;;HALL, Darren;R;'17;*;Y;
NL Central Division;Redmond Luchadores;;VILLONE, Ron;L;'14;*;YW;
NL Central Division;Redmond Luchadores;;LOISELLE, Rich;R;'13;*;XZ;
NL Central Division;Redmond Luchadores;;BELINDA, Stan;R;'9;*;XZ;
NL Central Division;Redmond Luchadores;;SLOCUMB, Heathcliff;R;'5;*;YW;
NL Central Division;Redmond Luchadores;;CASTILLO, Tony;L;'4;*;YZ;
NL Central Division;Vegas Gamblerz;;PITCHERS - 16;T;'Grade;;Ctrl;
NL Central Division;Vegas Gamblerz;;MARTINEZ, Pedro J.;R;'20;;XYZ;
NL Central Division;Vegas Gamblerz;;HAMPTON, Mike;L;'10;;;
NL Central Division;Vegas Gamblerz;;REMLINGER, Mike;L;'5/6;*;X;
NL Central Division;Vegas Gamblerz;;PUGH, Tim;R;'4;;W;
NL Central Division;Vegas Gamblerz;;KARSAY, Steve;R;'2;;YZ;
NL Central Division;Vegas Gamblerz;;LIMA, Jose;R;'2;;YZ;
NL Central Division;Vegas Gamblerz;;HARNISCH, Pete;R;'1;;W;
NL Central Division;Vegas Gamblerz;;JACKSON, Danny;L;'1;;;
NL Central Division;Vegas Gamblerz;;MIMBS, Mike;L;'1;;YW;
NL Central Division;Vegas Gamblerz;;WAGNER, Billy;L;'15;*;XYW;
NL Central Division;Vegas Gamblerz;;BAILES, Scott;L;'10;*;Y;
NL Central Division;Vegas Gamblerz;;JOHNSTONE, John;R;'9;*;YW;
NL Central Division;Vegas Gamblerz;;JANZEN, Marty;R;'8;*;YW;
NL Central Division;Vegas Gamblerz;;GARCES, Rich;R;'5;*;YW;
NL Central Division;Vegas Gamblerz;;HARKEY, Mike;R;'4;*;;
NL Central Division;Vegas Gamblerz;;RUFFIN, Bruce;L;'3;*;XYW;
NL East Division;Philadelphia J's;;PITCHERS - 15;T;'Grade;;Ctrl;
NL East Division;Philadelphia J's;;ESTES, Shawn;L;'15;;XW;
NL East Division;Philadelphia J's;;TAPANI, Kevin;R;'9;;Z;
NL East Division;Philadelphia J's;;HERSHISER, Orel;R;'8;;;
NL East Division;Philadelphia J's;;BALDWIN, James;R;'5;;Y;
NL East Division;Philadelphia J's;;HUTTON, Mark;R;'5;;;
NL East Division;Philadelphia J's;;GREEN, Tyler;R;'4;;YW;
NL East Division;Philadelphia J's;;ALDRED, Scott;L;'1;;;
NL East Division;Philadelphia J's;;COPPINGER, Rocky;R;'1;;XW;
NL East Division;Philadelphia J's;;MYERS, Rodney;R;'1;;W;
NL East Division;Philadelphia J's;;WOJCIECHOWSKI, Steve;L;'1;;Z;
NL East Division;Philadelphia J's;;PATTERSON, Danny;R;'13;*;XZ;
NL East Division;Philadelphia J's;;HARRIS, Pep;R;'12;*;Y;
NL East Division;Philadelphia J's;;CARMONA, Rafael;R;'5;*;XY;
NL East Division;Philadelphia J's;;ROJAS, Mel;R;'5;*;X;
NL East Division;Philadelphia J's;;SCOTT, Tim;R;'1;*;Z;
NL East Division;Seattle Sluggers;;PITCHERS - 17;T;'Grade;;Ctrl;
NL East Division;Seattle Sluggers;;HERNANDEZ, Livan;R;'10;;Y;
NL East Division;Seattle Sluggers;;LEITER, Al;L;'7;;YW;
NL East Division;Seattle Sluggers;;DARWIN, Danny;R;'6;;Z;
NL East Division;Seattle Sluggers;;ANDERSON, Brian;L;'5;;Z;
NL East Division;Seattle Sluggers;;OGEA, Chad;R;'5;;;
NL East Division;Seattle Sluggers;;MAY, Darrell;L;'4;;Y;
NL East Division;Seattle Sluggers;;WHITE, Gabe;L;'4;;Z;
NL East Division;Seattle Sluggers;;JACOME, Jason;L;'2;;Z;
NL East Division;Seattle Sluggers;;WOLCOTT, Bob;R;'2;;Z;
NL East Division;Seattle Sluggers;;CLARK, Terry;R;'1;;;
NL East Division;Seattle Sluggers;;ESHELMAN, Vaughn;L;'1;;Z;
NL East Division;Seattle Sluggers;;HURTADO, Edwin;R;'1;;W;
NL East Division;Seattle Sluggers;;BENITEZ, Armando;R;'18;*;XYW;
NL East Division;Seattle Sluggers;;PLESAC, Dan;L;'12;*;XYZ;
NL East Division;Seattle Sluggers;;GRAVES, Danny;R;'3;*;W;
NL East Division;Seattle Sluggers;;MECIR, Jim;R;'2;*;YZ;
NL East Division;Seattle Sluggers;;SMITH, Lee;R;'2;*;;
NL East Division;Tardtown Twin Killers;;PITCHERS - 18;T;'Grade;;Ctrl;
NL East Division;Tardtown Twin Killers;;JOHNSON, Randy;L;'20;;XY;
NL East Division;Tardtown Twin Killers;;BROWN, Kevin;R;'16;;XZ;
NL East Division;Tardtown Twin Killers;;APPIER, Kevin;R;'13;;X;
NL East Division;Tardtown Twin Killers;;REED, Rick;R;'13;;Z;
NL East Division;Tardtown Twin Killers;;GARCIA, Ramon;R;'8;;Y;
NL East Division;Tardtown Twin Killers;;McDONALD, Ben;R;'7;;YZ;
NL East Division;Tardtown Twin Killers;;PERSON, Robert;R;'3;;Y;
NL East Division;Tardtown Twin Killers;;PORTUGAL, Mark;R;'3;;;
NL East Division;Tardtown Twin Killers;;ADAMS, Willie;R;'1;;W;
NL East Division;Tardtown Twin Killers;;WETTELAND, John;R;'20;*;XZ;
NL East Division;Tardtown Twin Killers;;OSUNA, Antonio;R;'18;*;XZ;
NL East Division;Tardtown Twin Killers;;NELSON, Jeff;R;'15;*;X;
NL East Division;Tardtown Twin Killers;;MONTGOMERY, Jeff;R;'12;*;YZ;
NL East Division;Tardtown Twin Killers;;SULLIVAN, Scott;R;'12;*;XZ;
NL East Division;Tardtown Twin Killers;;PATTERSON, Bob;L;'11;*;XZ;
NL East Division;Tardtown Twin Killers;;MYERS, Mike;L;'3;*;X;
NL East Division;Tardtown Twin Killers;;EISCHEN, Joey;L;'1;*;XW;
NL East Division;Tardtown Twin Killers;;THOMAS, Larry;L;'1;*;W;
NL East Division;Tucson Saguaros;;PITCHERS - 15;T;'Grade;;Ctrl;
NL East Division;Tucson Saguaros;;BLAIR, Willie;R;'9;;Z;
NL East Division;Tucson Saguaros;;NAGY, Charles;R;'8;;YZ;
NL East Division;Tucson Saguaros;;WILLIAMS, Woody;R;'7;;Y;
NL East Division;Tucson Saguaros;;BOHANON, Brian;L;'6;;;
NL East Division;Tucson Saguaros;;MERCKER, Kent;L;'6;;;
NL East Division;Tucson Saguaros;;LIEBER, Jon;R;'5;;YZ;
NL East Division;Tucson Saguaros;;ROBERTSON, Rich;L;'4;;;
NL East Division;Tucson Saguaros;;REYES, Carlos;R;'2;;Z;
NL East Division;Tucson Saguaros;;JARVIS, Kevin;R;'1;;;
NL East Division;Tucson Saguaros;;SABERHAGEN, Bret;R;'1;;;
NL East Division;Tucson Saguaros;;WALL, Donne;R;'1;;;
NL East Division;Tucson Saguaros;;YAN, Esteban;R;'1;;W;
NL East Division;Tucson Saguaros;;STANTON, Mike;L;'18;*;XW;
NL East Division;Tucson Saguaros;;JACKSON, Mike;R;'14;*;X;
NL East Division;Tucson Saguaros;;HEREDIA, Felix;L;'6;*;YW;
NL West Division;Bubbaville Brewzers;;PITCHERS - 13;T;'Grade;;Ctrl;
NL West Division;Bubbaville Brewzers;;HENRY, Butch;L;'10/11;*;Z;
NL West Division;Bubbaville Brewzers;;HAMILTON, Joey;R;'7;;;
NL West Division;Bubbaville Brewzers;;BAILEY, Roger;R;'6;;;
NL West Division;Bubbaville Brewzers;;ELDRED, Cal;R;'6;;;
NL West Division;Bubbaville Brewzers;;WITT, Bobby;R;'6;;;
NL West Division;Bubbaville Brewzers;;REYNOSO, Armando;R;'5;;Z;
NL West Division;Bubbaville Brewzers;;SAGER, A. J.;R;'5/8;*;YZ;
NL West Division;Bubbaville Brewzers;;SCHMIDT, Jason;R;'5;;Y;
NL West Division;Bubbaville Brewzers;;HAMMOND, Chris;L;'2;;Y;
NL West Division;Bubbaville Brewzers;;LESKANIC, Curt;R;'2;*;X;
NL West Division;Bubbaville Brewzers;;BORLAND, Toby;R;'1;*;W;
NL West Division;Bubbaville Brewzers;;HONEYCUTT, Rick;L;'1;*;Y;
NL West Division;Bubbaville Brewzers;;SERVICE, Scott;R;'1;*;XZ;
NL West Division;Charm City Rookies;;PITCHERS - 16;T;'Grade;;Ctrl;
NL West Division;Charm City Rookies;;DICKSON, Jason;R;'7;;Z;
NL West Division;Charm City Rookies;;JUDEN, Jeff;R;'7;;Y;
NL West Division;Charm City Rookies;;PEREZ, Carlos;L;'7;;Z;
NL West Division;Charm City Rookies;;NOMO, Hideo;R;'6;;X;
NL West Division;Charm City Rookies;;RAPP, Pat;R;'5;;W;
NL West Division;Charm City Rookies;;PETKOVSEK, Mark;R;'3;;Z;
NL West Division;Charm City Rookies;;SANDERS, Scott;R;'3;;Y;
NL West Division;Charm City Rookies;;GUBICZA, Mark;R;'1;;Y;
NL West Division;Charm City Rookies;;QUANTRILL, Paul;R;'19;*;YZ;
NL West Division;Charm City Rookies;;HERNANDEZ, Roberto;R;'17;*;X;
NL West Division;Charm City Rookies;;TELFORD, Anthony;R;'12;*;Y;
NL West Division;Charm City Rookies;;VERES, Dave;R;'11;*;Y;
NL West Division;Charm City Rookies;;FOSSAS, Tony;L;'8;*;Y;
NL West Division;Charm City Rookies;;BIELECKI, Mike;R;'6;*;XZ;
NL West Division;Charm City Rookies;;HENRY, Doug;R;'5;*;XW;
NL West Division;Charm City Rookies;;TORRES, Salomon;R;'1;*;W;
NL West Division;Crown Hill Crabbers;;PITCHERS - 13;T;'Grade;;Ctrl;
NL West Division;Crown Hill Crabbers;;WAKEFIELD, Tim;R;'7;;Y;
NL West Division;Crown Hill Crabbers;;CASTILLO, Frank;R;'5;;;
NL West Division;Crown Hill Crabbers;;HOLMES, Darren;R;'5;;Y;
NL West Division;Crown Hill Crabbers;;WORRELL, Tim;R;'3;;Y;
NL West Division;Crown Hill Crabbers;;WENGERT, Don;R;'2;;Z;
NL West Division;Crown Hill Crabbers;;BONES, Ricky;R;'1;;Z;
NL West Division;Crown Hill Crabbers;;FLENER, Huck;L;'1;;Z;
NL West Division;Crown Hill Crabbers;;TIMLIN, Mike;R;'14;*;YZ;
NL West Division;Crown Hill Crabbers;;BOTTALICO, Ricky;R;'13;*;XW;
NL West Division;Crown Hill Crabbers;;MATHEWS, Terry;R;'8;*;W;
NL West Division;Crown Hill Crabbers;;REED, Steve;R;'7;*;Y;
NL West Division;Crown Hill Crabbers;;PLUNK, Eric;R;'5;*;X;
NL West Division;Crown Hill Crabbers;;DESSENS, Elmer;R;'3;*;Z;
NL West Division;Pasco Buffet;;PITCHERS - 14;T;'Grade;;Ctrl;
NL West Division;Pasco Buffet;;CLEMENS, Roger;R;'20;;XYZ;
NL West Division;Pasco Buffet;;SMOLTZ, John;R;'14;;XZ;
NL West Division;Pasco Buffet;;KEY, Jimmy;L;'13;;Y;
NL West Division;Pasco Buffet;;DRABEK, Doug;R;'5;;;
NL West Division;Pasco Buffet;;FERNANDEZ, Osvaldo;R;'3;;Z;
NL West Division;Pasco Buffet;;JONES, Doug;R;'19;*;XZ;
NL West Division;Pasco Buffet;;BOEHRINGER, Brian;R;'15;*;XW;
NL West Division;Pasco Buffet;;McMICHAEL, Greg;R;'13;*;XZ;
NL West Division;Pasco Buffet;;McELROY, Chuck;L;'11;*;YZ;
NL West Division;Pasco Buffet;;SIMAS, Bill;R;'9;*;YW;
NL West Division;Pasco Buffet;;CARRASCO, Hector;R;'6;*;Y;
NL West Division;Pasco Buffet;;SPRADLIN, Jerry;R;'4;*;YZ;
NL West Division;Pasco Buffet;;WITASICK, Jay;R;'2;*;YW;
NL West Division;Pasco Buffet;;HANSELL, Greg;R;'1;*;XZ;
