AL Central Division;Melbourne Thunder;;OLIVARES, Omar;R;'7;;;
AL Central Division;Melbourne Thunder;;KARL, Scott;L;'5;;Z;
AL Central Division;Melbourne Thunder;;BURKETT, John;R;'4;;YZ;
AL Central Division;Melbourne Thunder;;LUEBBERS, Larry;R;'4;;;
AL Central Division;Melbourne Thunder;;JONES, Bobby J.;R;'2;;Z;
AL Central Division;Melbourne Thunder;;GRACE, Mike;R;'1;;;
AL Central Division;Melbourne Thunder;;HOFFMAN, Trevor;R;'19;*;XZ;
AL Central Division;Melbourne Thunder;;CLONTZ, Brad;R;'15;*;Y;
AL Central Division;Melbourne Thunder;;LLOYD, Graeme;L;'11;*;YZ;
AL Central Division;Melbourne Thunder;;MATHEWS, T. J.;R;'11;*;YZ;
AL Central Division;Melbourne Thunder;;PANIAGUA, Jose;R;'9;*;XW;
AL Central Division;Melbourne Thunder;;LOOPER, Braden;R;'8;*;Z;
AL Central Division;Melbourne Thunder;;RIGBY, Brad;R;'4;*;Z;
AL Central Division;Mill Creek Mafia;;SCHILLING, Curt;R;'11;;YZ;
AL Central Division;Mill Creek Mafia;;BURBA, Dave;R;'8;;Y;
AL Central Division;Mill Creek Mafia;;HELLING, Rick;R;'6;;Y;
AL Central Division;Mill Creek Mafia;;RUETER, Kirk;L;'6;;Z;
AL Central Division;Mill Creek Mafia;;BATISTA, Miguel;R;'5;;Y;
AL Central Division;Mill Creek Mafia;;BENES, Andy;R;'5;;Y;
AL Central Division;Mill Creek Mafia;;DEMPSTER, Ryan;R;'5;;YW;
AL Central Division;Mill Creek Mafia;;REYES, Dennys;L;'5/9;*;XW;
AL Central Division;Mill Creek Mafia;;SANCHEZ, Jesus;L;'3;;YW;
AL Central Division;Mill Creek Mafia;;SNYDER, John;R;'3;;;
AL Central Division;Mill Creek Mafia;;SANTANA, Julio;R;'1;;W;
AL Central Division;Mill Creek Mafia;;ADAMS, Terry;R;'7;*;X;
AL Central Division;Mill Creek Mafia;;OROSCO, Jesse;L;'5;*;XW;
AL Central Division;Mill Creek Mafia;;POWELL, Jay;R;'5;*;X;
AL Central Division;Mill Creek Mafia;;TELEMACO, Amaury;R;'3;*;Y;
AL Central Division;Portland Peaks;;MUSSINA, Mike;R;'13;;XZ;
AL Central Division;Portland Peaks;;ROSADO, Jose;L;'11;;Y;
AL Central Division;Portland Peaks;;SIROTKA, Mike;L;'9;;Z;
AL Central Division;Portland Peaks;;HENTGEN, Pat;R;'5;;Z;
AL Central Division;Portland Peaks;;HERMANSON, Dustin;R;'5;;YZ;
AL Central Division;Portland Peaks;;ISRINGHAUSEN, Jason;R;'5;;Y;
AL Central Division;Portland Peaks;;BERGMAN, Sean;R;'3;;Z;
AL Central Division;Portland Peaks;;ROCKER, John;L;'17;*;XY;
AL Central Division;Portland Peaks;;CABRERA, Jose;R;'14;*;XZ;
AL Central Division;Portland Peaks;;MADDUX, Mike;R;'8;*;Y;
AL Central Division;Portland Peaks;;RUNYAN, Sean;L;'7;*;Z;
AL Central Division;Portland Peaks;;FETTERS, Mike;R;'3;*;YW;
AL Central Division;Portland Peaks;;RODRIGUEZ, Rich;L;'3;*;Y;
AL Central Division;Portland Peaks;;ASSENMACHER, Paul;L;'1;*;Y;
AL Central Division;Rodgers Dodgers;;CORNELIUS, Reid;R;'6;;YZ;
AL Central Division;Rodgers Dodgers;;GLAVINE, Tom;L;'6;;Z;
AL Central Division;Rodgers Dodgers;;DREIFORT, Darren;R;'5;;Y;
AL Central Division;Rodgers Dodgers;;NEAGLE, Denny;L;'5;;Y;
AL Central Division;Rodgers Dodgers;;FYHRIE, Mike;R;'4;;;
AL Central Division;Rodgers Dodgers;;GOODEN, Dwight;R;'3;;YW;
AL Central Division;Rodgers Dodgers;;KILE, Darryl;R;'2;;W;
AL Central Division;Rodgers Dodgers;;PEREZ, Carlos;L;'1;;;
AL Central Division;Rodgers Dodgers;;WICKMAN, Bob;R;'13;*;Y;
AL Central Division;Rodgers Dodgers;;EMBREE, Alan;L;'12;*;X;
AL Central Division;Rodgers Dodgers;;CHRISTIANSEN, Jason;L;'6;*;X;
AL Central Division;Rodgers Dodgers;;RINCON, Ricardo;L;'6;*;Y;
AL Central Division;Rodgers Dodgers;;BENES, Alan;R;'2;*;X;
AL Central Division;Rodgers Dodgers;;TAM, Jeff;R;'2;*;YZ;
AL Central Division;Rodgers Dodgers;;DeJEAN, Mike;R;'1;*;;
AL Central Division;Rodgers Dodgers;;HUDEK, John;R;'1;*;YW;
AL East Division;Centralia Centaurs;;SUPPAN, Jeff;R;'6;;Z;
AL East Division;Centralia Centaurs;;FLORIE, Bryce;R;'5;;Y;
AL East Division;Centralia Centaurs;;MORGAN, Mike;R;'5;;Z;
AL East Division;Centralia Centaurs;;MULHOLLAND, Terry;L;'5;;Z;
AL East Division;Centralia Centaurs;;SPARKS, Steve;R;'5;;W;
AL East Division;Centralia Centaurs;;STEIN, Blake;R;'5;;YW;
AL East Division;Centralia Centaurs;;HAWKINS, LaTroy;R;'3;;Z;
AL East Division;Centralia Centaurs;;JARVIS, Kevin;R;'1;;Y;
AL East Division;Centralia Centaurs;;FRASCATORE, John;R;'11;*;Z;
AL East Division;Centralia Centaurs;;MILLS, Alan;R;'10;*;W;
AL East Division;Centralia Centaurs;;WASDIN, John;R;'8;*;YZ;
AL East Division;Centralia Centaurs;;BORBON, Pedro;L;'7;*;W;
AL East Division;Centralia Centaurs;;DIPOTO, Jerry;R;'5;*;Y;
AL East Division;Centralia Centaurs;;SPRADLIN, Jerry;R;'4;*;Y;
AL East Division;Flushing Metropolitans;;CONE, David;R;'13;;X;
AL East Division;Flushing Metropolitans;;FERNANDEZ, Alex;R;'10;;Z;
AL East Division;Flushing Metropolitans;;GUZMAN, Juan;R;'10;;Y;
AL East Division;Flushing Metropolitans;;ASHBY, Andy;R;'9;;Z;
AL East Division;Flushing Metropolitans;;REYNOLDS, Shane;R;'8;;YZ;
AL East Division;Flushing Metropolitans;;STEPHENSON, Garrett;R;'5;;YZ;
AL East Division;Flushing Metropolitans;;ARROJO, Rolando;R;'4;;Y;
AL East Division;Flushing Metropolitans;;ACEVEDO, Juan;R;'2;;;
AL East Division;Flushing Metropolitans;;FASSERO, Jeff;L;'2;;Y;
AL East Division;Flushing Metropolitans;;LIDLE, Cory;R;'1;;Y;
AL East Division;Flushing Metropolitans;;MILLER, Travis;L;'16;*;YZ;
AL East Division;Flushing Metropolitans;;SHAW, Jeff;R;'15;*;Z;
AL East Division;Flushing Metropolitans;;AGUILERA, Rick;R;'14;*;YZ;
AL East Division;Flushing Metropolitans;;FRANCO, John;L;'14;*;X;
AL East Division;Flushing Metropolitans;;WENDELL, Turk;R;'14;*;X;
AL East Division;Flushing Metropolitans;;CORSI, Jim;R;'6;*;;
AL East Division;Flushing Metropolitans;;RADINSKY, Scott;L;'5;*;W;
AL East Division;Germantown Toros;;HITCHCOCK, Sterling;L;'7;;X;
AL East Division;Germantown Toros;;AVERY, Steve;L;'5;;W;
AL East Division;Germantown Toros;;CASTILLO, Carlos;R;'3;;Z;
AL East Division;Germantown Toros;;PEREZ, Odalis;L;'3;;YW;
AL East Division;Germantown Toros;;SCHOUREK, Pete;L;'3;;Y;
AL East Division;Germantown Toros;;TRACHSEL, Steve;R;'3;;YZ;
AL East Division;Germantown Toros;;GARDNER, Mark;R;'2;;;
AL East Division;Germantown Toros;;OSBORNE, Donovan;L;'2;;YZ;
AL East Division;Germantown Toros;;CANDIOTTI, Tom;R;'1;;;
AL East Division;Germantown Toros;;LOWE, Sean;R;'12;*;Y;
AL East Division;Germantown Toros;;WELLS, Bob;R;'11;*;Z;
AL East Division;Germantown Toros;;SANTIAGO, Jose;R;'10;*;Z;
AL East Division;Germantown Toros;;KLINE, Steve;L;'8;*;X;
AL East Division;Germantown Toros;;BRADFORD, Chad;R;'1;*;W;
AL East Division;Texas Tankers;;COLON, Bartolo;R;'11;;Y;
AL East Division;Texas Tankers;;PARRIS, Steve;R;'11;;Y;
AL East Division;Texas Tankers;;PETTITTE, Andy;L;'6;;Y;
AL East Division;Texas Tankers;;LEVINE, Alan;R;'5/13;*;;
AL East Division;Texas Tankers;;AYBAR, Manny;R;'3;;Y;
AL East Division;Texas Tankers;;HAYNES, Jimmy;R;'3;;YW;
AL East Division;Texas Tankers;;LINTON, Doug;R;'3;;;
AL East Division;Texas Tankers;;PULSIPHER, Bill;L;'2;;;
AL East Division;Texas Tankers;;SAUNDERS, Tony;L;'2;;YW;
AL East Division;Texas Tankers;;RIVERA, Mariano;R;'22;*;XZ;
AL East Division;Texas Tankers;;SHUEY, Paul;R;'12;*;XY;
AL East Division;Texas Tankers;;AYALA, Bobby;R;'11;*;X;
AL East Division;Texas Tankers;;RODRIGUEZ, Felix;R;'8;*;Y;
AL East Division;Texas Tankers;;WILLIAMS, Brian;R;'5;*;Y;
AL East Division;Texas Tankers;;D'AMICO, Jeff;R;'1;*;X;
AL West Division;Beantown Loafers;;CARPENTER, Chris;R;'6;;YZ;
AL West Division;Beantown Loafers;;GRAHE, Joe;R;'5;;;
AL West Division;Beantown Loafers;;HILL, Ken;R;'5;;W;
AL West Division;Beantown Loafers;;MENDOZA, Ramiro;R;'5/7;*;YZ;
AL West Division;Beantown Loafers;;NUNEZ, Vladimir;R;'5/6;*;Y;
AL West Division;Beantown Loafers;;WRIGHT, Jamey;R;'5;;W;
AL West Division;Beantown Loafers;;HANEY, Chris;L;'4;;;
AL West Division;Beantown Loafers;;PARQUE, Jim;L;'4;;Y;
AL West Division;Beantown Loafers;;REKAR, Bryan;R;'4;;;
AL West Division;Beantown Loafers;;WASHBURN, Jarrod;L;'4;;Y;
AL West Division;Beantown Loafers;;BERE, Jason;R;'3;;W;
AL West Division;Beantown Loafers;;SPRINGER, Dennis;R;'3;;Z;
AL West Division;Beantown Loafers;;JOHNSON, Mike;R;'1;;W;
AL West Division;Beantown Loafers;;GRIMSLEY, Jason;R;'12;*;Y;
AL West Division;Beantown Loafers;;SPRINGER, Russ;R;'12;*;X;
AL West Division;Beantown Loafers;;CORMIER, Rheal;L;'11;*;YZ;
AL West Division;Beantown Loafers;;GUTHRIE, Mark;L;'4;*;Y;
AL West Division;Beantown Loafers;;SPEIER, Justin;R;'2;*;Y;
AL West Division;Milwaukee Lagers;;DAAL, Omar;L;'11;;Y;
AL West Division;Milwaukee Lagers;;RADKE, Brad;R;'11;;Z;
AL West Division;Milwaukee Lagers;;VALDEZ, Ismael;R;'6;;YZ;
AL West Division;Milwaukee Lagers;;CORDOVA, Francisco;R;'5;;;
AL West Division;Milwaukee Lagers;;MOEHLER, Brian;R;'5;;Z;
AL West Division;Milwaukee Lagers;;OLIVER, Darren;L;'5;;;
AL West Division;Milwaukee Lagers;;PETERS, Chris;L;'2;;;
AL West Division;Milwaukee Lagers;;BROCAIL, Doug;R;'17;*;XZ;
AL West Division;Milwaukee Lagers;;SWINDELL, Greg;L;'16;*;YZ;
AL West Division;Milwaukee Lagers;;CRABTREE, Tim;R;'12;*;XZ;
AL West Division;Milwaukee Lagers;;URBINA, Ugueth;R;'12;*;XY;
AL West Division;Milwaukee Lagers;;TROMBLEY, Mike;R;'7;*;XZ;
AL West Division;Milwaukee Lagers;;LOPEZ, Albie;R;'5;*;;
AL West Division;Milwaukee Lagers;;TAYLOR, Billy;R;'5;*;XZ;
AL West Division;Raleigh Rednecks;;WATSON, Allen;L;'9/11;*;Y;
AL West Division;Raleigh Rednecks;;BYRD, Paul;R;'7;;;
AL West Division;Raleigh Rednecks;;IRABU, Hideki;R;'6;;YZ;
AL West Division;Raleigh Rednecks;;LOAIZA, Esteban;R;'5;;YZ;
AL West Division;Raleigh Rednecks;;OQUIST, Mike;R;'5;;Y;
AL West Division;Raleigh Rednecks;;THURMAN, Mike;R;'5;;;
AL West Division;Raleigh Rednecks;;PORTUGAL, Mark;R;'4;;Z;
AL West Division;Raleigh Rednecks;;JONES, Bobby M.;L;'2;;W;
AL West Division;Raleigh Rednecks;;WOODALL, Brad;L;'2;;;
AL West Division;Raleigh Rednecks;;WEATHERS, Dave;R;'5;*;Y;
AL West Division;Raleigh Rednecks;;LEITER, Mark;R;'1;*;Y;
AL West Division;Tri City Atomics;;MADDUX, Greg;R;'11;;Z;
AL West Division;Tri City Atomics;;ALVAREZ, Wilson;L;'7;;Y;
AL West Division;Tri City Atomics;;FINLEY, Chuck;L;'7;;X;
AL West Division;Tri City Atomics;;NITKOWSKI, C. J.;L;'5/8;*;YW;
AL West Division;Tri City Atomics;;STOTTLEMYRE, Todd;R;'5;;Y;
AL West Division;Tri City Atomics;;WOODARD, Steve;R;'5;;Z;
AL West Division;Tri City Atomics;;SAMPSON, Benj;L;'1;;Y;
AL West Division;Tri City Atomics;;MESA, Jose;R;'6;*;;
AL West Division;Tri City Atomics;;GUARDADO, Eddie;L;'5;*;X;
AL West Division;Tri City Atomics;;RHODES, Arthur;L;'5;*;XW;
AL West Division;Tri City Atomics;;WILLIAMS, Mike;R;'5;*;XY;
AL West Division;Tri City Atomics;;GORDON, Tom;R;'4;*;XYW;
AL West Division;Tri City Atomics;;GROOM, Buddy;L;'4;*;YZ;
AL West Division;Tri City Atomics;;TAVAREZ, Julian;R;'2;*;;
AL West Division;Tri City Atomics;;DARENSBOURG, Vic;L;'1;*;;
NL Central Division;Issaquah IronPigs;;MOYER, Jamie;L;'11;;YZ;
NL Central Division;Issaquah IronPigs;;WELLS, David;L;'8;;YZ;
NL Central Division;Issaquah IronPigs;;MARTINEZ, Ramon;R;'7;;Y;
NL Central Division;Issaquah IronPigs;;ROGERS, Kenny;L;'7;;Y;
NL Central Division;Issaquah IronPigs;;MAHAY, Ron;L;'5/9;*;XZ;
NL Central Division;Issaquah IronPigs;;PARK, Chan Ho;R;'5;;Y;
NL Central Division;Issaquah IronPigs;;THOMPSON, Justin;L;'5;;;
NL Central Division;Issaquah IronPigs;;HOLT, Chris;R;'4;;Y;
NL Central Division;Issaquah IronPigs;;MAGNANTE, Mike;L;'13;*;Y;
NL Central Division;Issaquah IronPigs;;JONES, Todd;R;'12;*;XW;
NL Central Division;Issaquah IronPigs;;NEN, Robb;R;'11;*;XZ;
NL Central Division;Issaquah IronPigs;;PERCIVAL, Troy;R;'11;*;X;
NL Central Division;Issaquah IronPigs;;COOK, Dennis;L;'8;*;X;
NL Central Division;Issaquah IronPigs;;MILLER, Trever;L;'5;*;YW;
NL Central Division;Issaquah IronPigs;;BECK, Rod;R;'3;*;;
NL Central Division;Mississippi Mudhens;;JOHNS, Doug;L;'5;;Z;
NL Central Division;Mississippi Mudhens;;ROSE, Brian;R;'5;;Z;
NL Central Division;Mississippi Mudhens;;LANGSTON, Mark;L;'4;;Y;
NL Central Division;Mississippi Mudhens;;MEADOWS, Brian;R;'4;;Z;
NL Central Division;Mississippi Mudhens;;WRIGHT, Jaret;R;'4;;YW;
NL Central Division;Mississippi Mudhens;;NAVARRO, Jaime;R;'3;;;
NL Central Division;Mississippi Mudhens;;PITTSLEY, Jim;R;'3;;W;
NL Central Division;Mississippi Mudhens;;SILVA, Jose;R;'3;;Y;
NL Central Division;Mississippi Mudhens;;SUZUKI, Makoto;R;'2;;W;
NL Central Division;Mississippi Mudhens;;CLOUDE, Ken;R;'1;;W;
NL Central Division;Mississippi Mudhens;;LOWE, Derek;R;'17;*;YZ;
NL Central Division;Mississippi Mudhens;;GOMES, Wayne;R;'6;*;YW;
NL Central Division;Mississippi Mudhens;;MICELI, Danny;R;'5;*;Y;
NL Central Division;Mississippi Mudhens;;RUSCH, Glendon;L;'1;*;YW;
NL Central Division;Redmond Luchadores;;ORTIZ, Russ;R;'11;;YW;
NL Central Division;Redmond Luchadores;;ASTACIO, Pedro;R;'8;;XZ;
NL Central Division;Redmond Luchadores;;MLICKI, Dave;R;'6;;;
NL Central Division;Redmond Luchadores;;PONSON, Sidney;R;'6;;;
NL Central Division;Redmond Luchadores;;YOSHII, Masato;R;'6;;Z;
NL Central Division;Redmond Luchadores;;VILLONE, Ron;L;'5;;Y;
NL Central Division;Redmond Luchadores;;WITASICK, Jay;R;'4;;Y;
NL Central Division;Redmond Luchadores;;PAVANO, Carl;R;'3;;Z;
NL Central Division;Redmond Luchadores;;CLARK, Mark;R;'1;;;
NL Central Division;Redmond Luchadores;;THOMSON, John;R;'1;;;
NL Central Division;Redmond Luchadores;;SLOCUMB, Heathcliff;R;'8;*;X;
NL Central Division;Redmond Luchadores;;MOHLER, Mike;L;'5;*;;
NL Central Division;Redmond Luchadores;;BELINDA, Stan;R;'3;*;X;
NL Central Division;Redmond Luchadores;;LOISELLE, Rich;R;'2;*;X;
NL Central Division;Redmond Luchadores;;GUNDERSON, Eric;L;'1;*;Z;
NL Central Division;Vegas Gamblerz;;MARTINEZ, Pedro;R;'21;;XYZ;
NL Central Division;Vegas Gamblerz;;HAMPTON, Mike;L;'16;;Y;
NL Central Division;Vegas Gamblerz;;MILLWOOD, Kevin;R;'16;;XZ;
NL Central Division;Vegas Gamblerz;;LIMA, Jose;R;'13;;YZ;
NL Central Division;Vegas Gamblerz;;RITCHIE, Todd;R;'11;;Z;
NL Central Division;Vegas Gamblerz;;SABERHAGEN, Bret;R;'11;;YZ;
NL Central Division;Vegas Gamblerz;;ABBOTT, Paul;R;'10/11;*;X;
NL Central Division;Vegas Gamblerz;;KARSAY, Steve;R;'10/15;*;X;
NL Central Division;Vegas Gamblerz;;HARNISCH, Pete;R;'9;;Z;
NL Central Division;Vegas Gamblerz;;WAGNER, Billy;L;'22;*;XY;
NL Central Division;Vegas Gamblerz;;GARCES, Rich;R;'19;*;X;
NL Central Division;Vegas Gamblerz;;REMLINGER, Mike;L;'17;*;X;
NL Central Division;Vegas Gamblerz;;JOHNSTONE, John;R;'16;*;XZ;
NL East Division;Philadelphia J's;;HALLADAY, Roy;R;'10;;W;
NL East Division;Philadelphia J's;;ESTES, Shawn;L;'6;;YW;
NL East Division;Philadelphia J's;;HERSHISER, Orel;R;'6;;;
NL East Division;Philadelphia J's;;BALDWIN, James;R;'5;;Y;
NL East Division;Philadelphia J's;;JIMENEZ, Jose;R;'3;;Y;
NL East Division;Philadelphia J's;;BENNETT, Shayne;R;'1;;Z;
NL East Division;Philadelphia J's;;OJALA, Kirt;L;'1;;;
NL East Division;Philadelphia J's;;ALDRED, Scott;L;'5;*;Y;
NL East Division;Philadelphia J's;;CARRASCO, Hector;R;'5;*;Y;
NL East Division;Philadelphia J's;;PATTERSON, Danny;R;'3;*;YZ;
NL East Division;Philadelphia J's;;DeLUCIA, Rich;R;'2;*;YW;
NL East Division;Philadelphia J's;;PATRICK, Bronswell;R;'1;*;X;
NL East Division;Seattle Sluggers;;ANDERSON, Brian;L;'6;;Z;
NL East Division;Seattle Sluggers;;LEITER, Al;L;'6;;Y;
NL East Division;Seattle Sluggers;;HERNANDEZ, Livan;R;'4;;Y;
NL East Division;Seattle Sluggers;;CHEN, Bruce;L;'3;;X;
NL East Division;Seattle Sluggers;;LOEWER, Carlton;R;'3;;Z;
NL East Division;Seattle Sluggers;;OGEA, Chad;R;'3;;;
NL East Division;Seattle Sluggers;;McDOWELL, Jack;R;'1;;Z;
NL East Division;Seattle Sluggers;;BENITEZ, Armando;R;'21;*;XYW;
NL East Division;Seattle Sluggers;;GRAVES, Danny;R;'13;*;;
NL East Division;Seattle Sluggers;;MECIR, Jim;R;'13;*;YW;
NL East Division;Seattle Sluggers;;WHITE, Gabe;L;'5;*;XZ;
NL East Division;Seattle Sluggers;;PLUNK, Eric;R;'4;*;Y;
NL East Division;Seattle Sluggers;;EDMONDSON, Brian;R;'3;*;;
NL East Division;Seattle Sluggers;;PLESAC, Dan;L;'3;*;X;
NL East Division;Seattle Sluggers;;WOLCOTT, Bob;R;'1;*;;
NL East Division;Tardtown Twin Killers;;JOHNSON, Randy;L;'17;;XYZ;
NL East Division;Tardtown Twin Killers;;BROWN, Kevin;R;'14;;XZ;
NL East Division;Tardtown Twin Killers;;BOTTENFIELD, Kent;R;'10;;;
NL East Division;Tardtown Twin Killers;;ELARTON, Scott;R;'10/11;*;X;
NL East Division;Tardtown Twin Killers;;APPIER, Kevin;R;'7;;Y;
NL East Division;Tardtown Twin Killers;;REED, Rick;R;'6;;YZ;
NL East Division;Tardtown Twin Killers;;PERSON, Robert;R;'5/6;*;XW;
NL East Division;Tardtown Twin Killers;;BOHANON, Brian;L;'4;;;
NL East Division;Tardtown Twin Killers;;SULLIVAN, Scott;R;'14;*;Y;
NL East Division;Tardtown Twin Killers;;WETTELAND, John;R;'13;*;XZ;
NL East Division;Tardtown Twin Killers;;ALFONSECA, Antonio;R;'12;*;Z;
NL East Division;Tardtown Twin Killers;;SEANEZ, Rudy;R;'12;*;Y;
NL East Division;Tardtown Twin Killers;;NELSON, Jeff;R;'8;*;XW;
NL East Division;Tardtown Twin Killers;;MYERS, Mike;L;'3;*;YZ;
NL East Division;Tardtown Twin Killers;;OSUNA, Antonio;R;'1;*;XW;
NL East Division;Tucson Saguaros;;SELE, Aaron;R;'9;;XZ;
NL East Division;Tucson Saguaros;;NAGY, Charles;R;'8;;YZ;
NL East Division;Tucson Saguaros;;HALAMA, John;L;'7;;Z;
NL East Division;Tucson Saguaros;;LIEBER, Jon;R;'6;;XZ;
NL East Division;Tucson Saguaros;;WILLIAMS, Woody;R;'6;;Y;
NL East Division;Tucson Saguaros;;MERCKER, Kent;L;'5;;;
NL East Division;Tucson Saguaros;;STANTON, Mike;L;'4/6;*;XZ;
NL East Division;Tucson Saguaros;;YAN, Esteban;R;'3;;Y;
NL East Division;Tucson Saguaros;;BLAIR, Willie;R;'2;;Z;
NL East Division;Tucson Saguaros;;WALL, Donne;R;'13;*;YZ;
NL East Division;Tucson Saguaros;;JACKSON, Mike;R;'12;*;Y;
NL East Division;Tucson Saguaros;;REYES, Carlos;R;'9;*;YZ;
NL East Division;Tucson Saguaros;;HEREDIA, Felix;L;'4;*;X;
NL East Division;Tucson Saguaros;;POLITTE, Cliff;R;'1;*;YW;
NL West Division;Bubbaville Brewzers;;REYNOSO, Armando;R;'6;;;
NL West Division;Bubbaville Brewzers;;SCHMIDT, Jason;R;'6;;Y;
NL West Division;Bubbaville Brewzers;;CLEMENT, Matt;R;'5;;Y;
NL West Division;Bubbaville Brewzers;;HEREDIA, Gil;R;'5;;Z;
NL West Division;Bubbaville Brewzers;;JOHNSON, Jason;R;'5;;;
NL West Division;Bubbaville Brewzers;;VAZQUEZ, Javier;R;'5;;YZ;
NL West Division;Bubbaville Brewzers;;WITT, Bobby;R;'4;;YW;
NL West Division;Bubbaville Brewzers;;HAMILTON, Joey;R;'3;;;
NL West Division;Bubbaville Brewzers;;ELDRED, Cal;R;'1;;W;
NL West Division;Bubbaville Brewzers;;FOULKE, Keith;R;'19;*;XYZ;
NL West Division;Bubbaville Brewzers;;LESKANIC, Curt;R;'5;*;YW;
NL West Division;Bubbaville Brewzers;;SERVICE, Scott;R;'3;*;X;
NL West Division;Bubbaville Brewzers;;EYRE, Scott;L;'1;*;;
NL West Division;Bubbaville Brewzers;;FOX, Chad;R;'1;*;XY;
NL West Division;Charm City Rookies;;ERICKSON, Scott;R;'7;;;
NL West Division;Charm City Rookies;;RAPP, Pat;R;'7;;Y;
NL West Division;Charm City Rookies;;NOMO, Hideo;R;'6;;X;
NL West Division;Charm City Rookies;;JUDEN, Jeff;R;'5;;XY;
NL West Division;Charm City Rookies;;TOMKO, Brett;R;'4;;YZ;
NL West Division;Charm City Rookies;;HERNANDEZ, Roberto;R;'15;*;X;
NL West Division;Charm City Rookies;;CHOUINARD, Bobby;R;'13;*;Z;
NL West Division;Charm City Rookies;;HOWRY, Bob;R;'13;*;XYW;
NL West Division;Charm City Rookies;;QUANTRILL, Paul;R;'13;*;;
NL West Division;Charm City Rookies;;PETKOVSEK, Mark;R;'12;*;Z;
NL West Division;Charm City Rookies;;TELFORD, Anthony;R;'8;*;Y;
NL West Division;Charm City Rookies;;HENRY, Doug;R;'5;*;YW;
NL West Division;Charm City Rookies;;VERES, Dave;R;'5;*;X;
NL West Division;Charm City Rookies;;MARTIN, Tom;L;'1;*;YZ;
NL West Division;Crown Hill Crabbers;;HERNANDEZ, Orlando;R;'10;;Y;
NL West Division;Crown Hill Crabbers;;ESCOBAR, Kelvim;R;'6;;Y;
NL West Division;Crown Hill Crabbers;;HASEGAWA, Shigetoshi;R;'5;;;
NL West Division;Crown Hill Crabbers;;MILTON, Eric;L;'5;;YZ;
NL West Division;Crown Hill Crabbers;;WAKEFIELD, Tim;R;'5;;Y;
NL West Division;Crown Hill Crabbers;;WHITE, Rick;R;'5/8;*;YZ;
NL West Division;Crown Hill Crabbers;;BONES, Ricky;R;'3;;;
NL West Division;Crown Hill Crabbers;;TIMLIN, Mike;R;'12;*;X;
NL West Division;Crown Hill Crabbers;;HOLMES, Darren;R;'10;*;Y;
NL West Division;Crown Hill Crabbers;;REED, Steve;R;'7;*;YZ;
NL West Division;Crown Hill Crabbers;;WORRELL, Tim;R;'7;*;X;
NL West Division;Crown Hill Crabbers;;BOTTALICO, Ricky;R;'6;*;YW;
NL West Division;Pasco Buffet;;SMOLTZ, John;R;'12;;XZ;
NL West Division;Pasco Buffet;;BOEHRINGER, Brian;R;'10/11;*;YZ;
NL West Division;Pasco Buffet;;CLEMENS, Roger;R;'7;;X;
NL West Division;Pasco Buffet;;TAPANI, Kevin;R;'4;;Z;
NL West Division;Pasco Buffet;;BELCHER, Tim;R;'2;;;
NL West Division;Pasco Buffet;;MANTEI, Matt;R;'16;*;XYW;
NL West Division;Pasco Buffet;;JONES, Doug;R;'12;*;YZ;
NL West Division;Pasco Buffet;;SIMAS, Bill;R;'11;*;;
NL West Division;Pasco Buffet;;OLSON, Gregg;R;'10;*;Y;
NL West Division;Pasco Buffet;;HANSELL, Greg;R;'6;*;YZ;
NL West Division;Pasco Buffet;;McELROY, Chuck;L;'4;*;YW;
NL West Division;Pasco Buffet;;McMICHAEL, Greg;R;'4;*;;
NL West Division;Pasco Buffet;;KING, Curtis;R;'1;*;;
